ipss.test.plugin.core/testData/psse/V29/ieee9_v29.raw
0,   100.00, 29, 0, 1,  60.00     / PSS(R)E 29 RAW created by rawd29  WED, SEP 25 2013  11:55
 00/00/01                      100.0  0    0
 0
    1,'BUS-1   ',  16.5000,3,     0.000,     0.000,   1,   1,1.04000,   0.0000,   1
    2,'BUS-2   ',  18.0000,2,     0.000,     0.000,   1,   1,1.02500,   9.2800,   1
    3,'BUS-3   ',  13.8000,2,     0.000,     0.000,   1,   1,1.02500,   4.6600,   1
    4,'BUS-4   ', 230.0000,1,     0.000,     0.000,   1,   1,1.02500,  -2.2200,   1
    5,'BUS-5   ', 230.0000,1,     0.000,     0.000,   1,   1,0.99500,  -3.9900,   1
    6,'BUS-6   ', 230.0000,1,     0.000,     0.000,   1,   1,1.01200,  -3.6900,   1
    7,'BUS-7   ', 230.0000,1,     0.000,     0.000,   1,   1,1.02500,   3.7200,   1
    8,'BUS-8   ', 230.0000,1,     0.000,     0.000,   1,   1,1.01500,   0.7300,   1
    9,'BUS-9   ', 230.0000,1,     0.000,     0.000,   1,   1,1.03200,   1.9700,   1
 0 /End of Bus data, Begin Load data
    5,'1 ',1,   1,   1,   125.000,    50.000,     0.000,     0.000,     0.000,     0.000,   1
    6,'1 ',1,   1,   1,    90.000,    30.000,     0.000,     0.000,     0.000,     0.000,   1
    8,'1 ',1,   1,   1,   100.000,    35.000,     0.000,     0.000,     0.000,     0.000,   1
 0 /End of Load data, Begin Generator data
    1,'1 ',    71.640,    27.050,  9999.000, -9999.000,1.04000,    0,   100.000,   0.00000,   0.04000,   0.00000,   0.00000,1.00000,1,  100.0,  9999.000, -9999.000,   1,1.0000
    2,'1 ',   163.000,     6.650,  9999.000, -9999.000,1.02500,    0,   100.000,   0.00000,   0.08900,   0.00000,   0.00000,1.00000,1,  100.0,  9999.000, -9999.000,   1,1.0000
    3,'1 ',    85.000,   -10.860, 99990.000,-99990.000,1.02500,    0,   100.000,   0.00000,   0.10700,   0.00000,   0.00000,1.00000,1,  100.0,  9999.000, -9999.000,   1,1.0000
 0 /End of Generator data, Begin Branch data
    4,    -5,'0 ',   0.01000,   0.08500,   0.17600,    0.00,    0.00,    0.00,  0.00000,  0.00000,  0.00000,  0.00000,1,   0.00,   1,1.0000
    4,    -6,'0 ',   0.01700,   0.09200,   0.15800,    0.00,    0.00,    0.00,  0.00000,  0.00000,  0.00000,  0.00000,1,   0.00,   1,1.0000
    5,    -7,'0 ',   0.03200,   0.16100,   0.30600,    0.00,    0.00,    0.00,  0.00000,  0.00000,  0.00000,  0.00000,1,   0.00,   1,1.0000
    6,    -9,'0 ',   0.03900,   0.17000,   0.35800,    0.00,    0.00,    0.00,  0.00000,  0.00000,  0.00000,  0.00000,1,   0.00,   1,1.0000
    7,     8,'0 ',   0.00850,   0.07200,   0.14900,    0.00,    0.00,    0.00,  0.00000,  0.00000,  0.00000,  0.00000,1,   0.00,   1,1.0000
    8,    -9,'0 ',   0.01190,   0.10080,   0.20900,    0.00,    0.00,    0.00,  0.00000,  0.00000,  0.00000,  0.00000,1,   0.00,   1,1.0000
 0 /End of Branch data, Begin Transformer data
    1,    4,    0,'1 ',1,1,1,   0.00000,   0.00000,2,'GEN1_TO_',1,   1,1.0000
   0.00000,   0.05670,   100.00
1.00000,  16.500,   0.000,     0.00,     0.00,     0.00, 0,     0, 1.10000, 0.90000, 1.10000, 0.90000,  33, 0, 0.00000, 0.00000
1.00000, 230.000
    2,    7,    0,'1 ',1,1,1,   0.00000,   0.00000,2,'GEN2_TO_',1,   1,1.0000
   0.00000,   0.06250,   100.00
1.00000,  18.000,   0.000,     0.00,     0.00,     0.00, 0,     0, 1.10000, 0.90000, 1.10000, 0.90000,  33, 0, 0.00000, 0.00000
1.00000, 230.000
    3,    9,    0,'1 ',1,1,1,   0.00000,   0.00000,2,'GEN3_TO_',1,   1,1.0000
   0.00000,   0.05860,   100.00
1.00000,  13.800,   0.000,     0.00,     0.00,     0.00, 0,     0, 1.10000, 0.90000, 1.10000, 0.90000,  33, 0, 0.00000, 0.00000
1.00000, 230.000
 0 /End of Transformer data, Begin Area interchange data
 0 /End of Area interchange data, Begin Two-terminal dc line data
 0 /End of Two-terminal dc line data, Begin VSC dc line data
 0 /End of VSC dc line data, Begin Switched shunt data
 0 /End of Switched shunt data, Begin Impedance correction table data
 0 /End of Impedance correction table data, Begin Multi-terminal dc line data
 0 /End of Multi-terminal dc line data, Begin Multi-section line data
 0 /End of Multi-section line data, Begin Zone data
 0 /End of Zone data, Begin Inter-area transfer data
 0 /End of Inter-area transfer data, Begin Owner data
 0 /End of Owner data, Begin FACTS device data
 0 /End of FACTS device data
